/*--------------------------------*- C++ -*----------------------------------*\
| Quarter cylinder (puck): R=30mm, H=12mm (scale 1.5 on base R=20mm coords).  |
\*---------------------------------------------------------------------------*/
FoamFile
{
    version     2.0;
    format      ascii;
    class       dictionary;
    object      blockMeshDict;
}
// * * * * * * * * * * * * * * * * * * * * * * * * * * * * * * * * * * * * * //

scale   1.5;

// R = 0.02, core half-width a = 0.008, H = 0.008
vertices
(
    (0          0          0)        // 0
    (0.008      0          0)        // 1
    (0.02       0          0)        // 2
    (0.0141421  0.0141421  0)        // 3
    (0.008      0.008      0)        // 4
    (0          0.008      0)        // 5
    (0          0.02       0)        // 6
    (0          0          0.008)    // 7
    (0.008      0          0.008)    // 8
    (0.02       0          0.008)    // 9
    (0.0141421  0.0141421  0.008)    // 10
    (0.008      0.008      0.008)    // 11
    (0          0.008      0.008)    // 12
    (0          0.02       0.008)    // 13
);

blocks
(
    hex (0 1 4 5  7 8 11 12)   (8 8 10) simpleGrading (1 1 1)
    hex (1 2 3 4  8 9 10 11)   (8 8 10) simpleGrading (1 1 1)
    hex (5 4 3 6  12 11 10 13) (8 8 10) simpleGrading (1 1 1)
);

edges
(
    arc  2  3 (0.0184776 0.0076537 0)
    arc  9 10 (0.0184776 0.0076537 0.008)
    arc  3  6 (0.0076537 0.0184776 0)
    arc 10 13 (0.0076537 0.0184776 0.008)
);

boundary
(
    symX
    {
        type symmetryPlane;
        faces
        (
            (0 1 8 7)
            (1 2 9 8)
        );
    }
    symY
    {
        type symmetryPlane;
        faces
        (
            (0 7 12 5)
            (5 12 13 6)
        );
    }
    outer
    {
        type patch;
        faces
        (
            (2 3 10 9)
            (3 6 13 10)
        );
    }
    bottom
    {
        type patch;
        faces
        (
            (0 5 4 1)
            (1 4 3 2)
            (5 6 3 4)
        );
    }
    top
    {
        type patch;
        faces
        (
            (7 8 11 12)
            (8 9 10 11)
            (12 11 10 13)
        );
    }
);

// ************************************************************************* //
